LTspice 24.1.9 for Windows
Circuit: E:\CMOS project\CMOS-Logic-Gates\adders\full_adder.net
Start Time: Tue Jun 10 00:00:58 2025
solver = Normal
Maximum thread count: 32
tnom = 27
temp = 27
method = trap
WARNING: Node n005 is floating.
WARNING: Node n006 is floating.
WARNING: Node n015 is floating.
WARNING: Node n016 is floating.
WARNING: Node n029 is floating.
WARNING: Node n038 is floating.
WARNING: Node n026 is floating.
WARNING: Node n018 is floating.
WARNING: Node n030 is floating.
WARNING: Node n039 is floating.
WARNING: Node n027 is floating.
WARNING: Node n019 is floating.
WARNING: Node n044 is floating.
WARNING: Node n045 is floating.
WARNING: Node n035 is floating.
WARNING: Node n041 is floating.
WARNING: Node n002 is floating.
WARNING: Node n003 is floating.
WARNING: Node n009 is floating.
WARNING: Node n010 is floating.
WARNING: Node n022 is floating.
WARNING: Node n031 is floating.
WARNING: Node n020 is floating.
WARNING: Node n012 is floating.
WARNING: Node n023 is floating.
WARNING: Node n032 is floating.
WARNING: Node n021 is floating.
WARNING: Node n013 is floating.
WARNING: Node n042 is floating.
WARNING: Node n043 is floating.
WARNING: Node n028 is floating.
WARNING: Node n036 is floating.
WARNING: Node x1:n006 is floating.
WARNING: Node x1:n007 is floating.
WARNING: Node x1:n004 is floating.
WARNING: Node x1:n001 is floating.
WARNING: Node x1:n003 is floating.
WARNING: Node x1:n005 is floating.

Direct Newton iteration for .op point succeeded.
Total elapsed time: 0.126 seconds.

Files loaded:
E:\CMOS project\CMOS-Logic-Gates\adders\full_adder.net
C:\Users\daksh\AppData\Local\LTspice\lib\cmp\standard.mos

